LTspice 24.0.12 for Windows
Circuit: * C:\Users\lchap\Workspace\Git\FMCW_Radar_PCB\Simulation\FMCW_PCB\fmcw_pcb.asc
Start Time: Sat Dec 21 22:42:57 2024
solver = Normal
Maximum thread count: 16
tnom = 27
temp = 27
method = modified trap
Direct Newton iteration for .op point succeeded.
Total elapsed time: 0.217 seconds.

